Version 4
SHEET 1 1208 680
WIRE 544 -272 384 -272
WIRE 704 -272 544 -272
WIRE 816 -272 704 -272
WIRE 944 -272 816 -272
WIRE 1152 -272 944 -272
WIRE 944 -224 944 -272
WIRE 704 -192 704 -272
WIRE 816 -192 816 -272
WIRE 384 -144 384 -272
WIRE 544 -144 544 -272
WIRE 704 -64 704 -112
WIRE 816 -64 816 -128
WIRE 816 -64 704 -64
WIRE 944 -64 944 -96
WIRE 944 -64 816 -64
WIRE 704 -32 704 -64
WIRE 1152 -16 1152 -272
WIRE 544 16 544 -64
WIRE 624 16 544 16
WIRE 544 96 544 16
WIRE -48 144 -272 144
WIRE 96 144 32 144
WIRE 384 144 384 -64
WIRE 384 144 288 144
WIRE 464 144 384 144
WIRE 384 208 288 208
WIRE -272 240 -272 224
WIRE 96 240 -272 240
WIRE -272 320 -272 240
WIRE 384 320 384 208
WIRE 544 320 544 192
WIRE 704 320 704 64
WIRE 1152 320 1152 64
FLAG 384 320 0
FLAG 544 320 0
FLAG 704 320 0
FLAG 1152 320 0
FLAG -272 320 0
SYMBOL Optos\\4N28 192 208 R0
SYMATTR InstName U1
SYMBOL EXTRA\\ZETEX\\NMOSFET\\BS170 512 144 R0
SYMATTR InstName U2
SYMBOL res 368 -160 R0
SYMATTR InstName R1
SYMATTR Value 2.2k
SYMBOL res 528 -160 R0
SYMATTR InstName R2
SYMATTR Value 2.2k
SYMBOL EXTRA\\IRF\\NMOSFET\\irfp460 672 16 R0
SYMATTR InstName U3
SYMBOL ind 688 -208 R0
SYMATTR InstName L1
SYMATTR Value 8m
SYMATTR SpiceLine Ipk=10 Rser=1
SYMBOL cap 800 -192 R0
SYMATTR InstName C1
SYMATTR Value .47µ
SYMBOL diode 928 -224 R0
SYMATTR InstName D1
SYMATTR Value gl34g
SYMATTR Description Zener Diode
SYMATTR Type zener
SYMBOL diode 960 -96 R180
WINDOW 0 24 64 Left 2
WINDOW 3 24 0 Left 2
SYMATTR InstName D2
SYMATTR Value gl34g
SYMATTR Description Zener Diode
SYMATTR Type zener
SYMBOL voltage 1152 -32 R0
WINDOW 123 0 0 Left 0
WINDOW 39 0 0 Left 0
SYMATTR InstName V1
SYMATTR Value 12
SYMBOL res 48 128 R90
WINDOW 0 0 56 VBottom 2
WINDOW 3 32 56 VTop 2
SYMATTR InstName R3
SYMATTR Value 330
SYMBOL voltage -272 128 R0
WINDOW 3 1 -55 Left 2
WINDOW 123 0 0 Left 0
WINDOW 39 0 0 Left 0
SYMATTR InstName V2
SYMATTR Value PULSE(0 5 2m 2u 2u 4m 10m)
TEXT -274 32 Left 2 !.tran 10m
